Circuit: * C:\Users\arti\Documents\LTspiceXVII\filtr v2.asc

WARNING: Less than two connections to node U6:9.  This node is used by E:U6:CMR.
WARNING: Less than two connections to node U1:9.  This node is used by E:U1:CMR.
Direct Newton iteration failed to find .op point.  (Use ".option noopiter" to skip.)
Starting Gmin stepping
Gmin = 10
vernier = 0.5
vernier = 0.25
vernier = 0.125
Gmin = 5.5165
vernier = 0.0625
vernier = 0.03125
vernier = 0.015625
vernier = 0.0078125
Gmin = 5.49501
vernier = 0.00390625
vernier = 0.00195313
vernier = 0.000976563
vernier = 0.000488281
Gmin = 5.50104
Gmin = 0
Gmin stepping failed

Starting source stepping with srcstepmethod=0
Source Step = 3.0303%
Source Step = 33.3333%
Source Step = 63.6364%
Source Step = 93.9394%
Source stepping succeeded in finding the operating point.


Date: Sun Sep 23 18:17:31 2018
Total elapsed time: 9.747 seconds.

tnom = 27
temp = 27
method = modified trap
totiter = 2964
traniter = 1084
tranpoints = 543
accept = 480
rejected = 63
matrix size = 310
fillins = 699
solver = Normal
Matrix Compiler1: 66.70 KB object code size  17.5/559.5/[6.0]
Matrix Compiler2: 37.30 KB object code size  7.7/7.7/[3.8]

